FoamFile { version 2.0; format ascii; class dictionary; object decomposeParDict; }
numberOfSubdomains 8;
method          scotch;
// Adding this ensures scotch runs without warnings
coeffs          { } 
