FoamFile
{
    version     2.0;
    format      ascii;
    class       dictionary;
    object      physicalProperties;
}

viscosityModel  constant;

nu              [0 2 -1 0 0 0 0] 1.5e-05; // Kinematic viscosity of air

rho             [1 -3 0 0 0 0 0] 1.225;   // Density of air
