/*--------------------------------*- C++ -*----------------------------------*\
  =========                 |
  \\      /  F ield         | OpenFOAM: The Open Source CFD Toolbox
   \\    /   O peration     | Website:  https://openfoam.org
    \\  /    A nd           | Version:  13
     \\/     M anipulation  |
\*---------------------------------------------------------------------------*/
FoamFile
{
    format      ascii;
    class       polyBoundaryMesh;
    location    "constant/polyMesh";
    object      boundary;
}
// * * * * * * * * * * * * * * * * * * * * * * * * * * * * * * * * * * * * * //

8
(
    inlet
    {
        type            patch;
        nFaces          2500;
        startFace       506216;
    }
    outlet
    {
        type            patch;
        nFaces          0;
        startFace       508716;
    }
    sides
    {
        type            wall;
        inGroups        List<word> 1(wall);
        nFaces          4353;
        startFace       508716;
    }
    topBottom
    {
        type            wall;
        inGroups        List<word> 1(wall);
        nFaces          5641;
        startFace       513069;
    }
    bajaSurface
    {
        type            wall;
        inGroups        List<word> 1(wall);
        nFaces          0;
        startFace       518710;
    }
    procBoundary6to4
    {
        type            processor;
        inGroups        List<word> 1(processor);
        nFaces          229;
        startFace       518710;
        matchTolerance  0.0001;
        myProcNo        6;
        neighbProcNo    4;
    }
    procBoundary6to5
    {
        type            processor;
        inGroups        List<word> 1(processor);
        nFaces          2716;
        startFace       518939;
        matchTolerance  0.0001;
        myProcNo        6;
        neighbProcNo    5;
    }
    procBoundary6to7
    {
        type            processor;
        inGroups        List<word> 1(processor);
        nFaces          5869;
        startFace       521655;
        matchTolerance  0.0001;
        myProcNo        6;
        neighbProcNo    7;
    }
)

// ************************************************************************* //
