/*--------------------------------*- C++ -*----------------------------------*\
  =========                 |
  \\      /  F ield         | OpenFOAM: The Open Source CFD Toolbox
   \\    /   O peration     | Website:  https://openfoam.org
    \\  /    A nd           | Version:  13
     \\/     M anipulation  |
\*---------------------------------------------------------------------------*/
FoamFile
{
    format      ascii;
    class       polyBoundaryMesh;
    location    "constant/polyMesh";
    object      boundary;
}
// * * * * * * * * * * * * * * * * * * * * * * * * * * * * * * * * * * * * * //

7
(
    inlet
    {
        type            patch;
        nFaces          2300;
        startFace       498996;
    }
    outlet
    {
        type            patch;
        nFaces          0;
        startFace       501296;
    }
    sides
    {
        type            wall;
        inGroups        List<word> 1(wall);
        nFaces          4182;
        startFace       501296;
    }
    topBottom
    {
        type            wall;
        inGroups        List<word> 1(wall);
        nFaces          5923;
        startFace       505478;
    }
    bajaSurface
    {
        type            wall;
        inGroups        List<word> 1(wall);
        nFaces          0;
        startFace       511401;
    }
    procBoundary7to5
    {
        type            processor;
        inGroups        List<word> 1(processor);
        nFaces          3110;
        startFace       511401;
        matchTolerance  0.0001;
        myProcNo        7;
        neighbProcNo    5;
    }
    procBoundary7to6
    {
        type            processor;
        inGroups        List<word> 1(processor);
        nFaces          5869;
        startFace       514511;
        matchTolerance  0.0001;
        myProcNo        7;
        neighbProcNo    6;
    }
)

// ************************************************************************* //
