/*--------------------------------*- C++ -*----------------------------------*\
  =========                 |
  \\      /  F ield         | OpenFOAM: The Open Source CFD Toolbox
   \\    /   O peration     | Website:  https://openfoam.org
    \\  /    A nd           | Version:  13
     \\/     M anipulation  |
\*---------------------------------------------------------------------------*/
FoamFile
{
    format      ascii;
    class       polyBoundaryMesh;
    location    "constant/polyMesh";
    object      boundary;
}
// * * * * * * * * * * * * * * * * * * * * * * * * * * * * * * * * * * * * * //

9
(
    inlet
    {
        type            patch;
        nFaces          0;
        startFace       508350;
    }
    outlet
    {
        type            patch;
        nFaces          0;
        startFace       508350;
    }
    sides
    {
        type            wall;
        inGroups        List<word> 1(wall);
        nFaces          0;
        startFace       508350;
    }
    topBottom
    {
        type            wall;
        inGroups        List<word> 1(wall);
        nFaces          1423;
        startFace       508350;
    }
    bajaSurface
    {
        type            wall;
        inGroups        List<word> 1(wall);
        nFaces          33037;
        startFace       509773;
    }
    procBoundary4to0
    {
        type            processor;
        inGroups        List<word> 1(processor);
        nFaces          1431;
        startFace       542810;
        matchTolerance  0.0001;
        myProcNo        4;
        neighbProcNo    0;
    }
    procBoundary4to1
    {
        type            processor;
        inGroups        List<word> 1(processor);
        nFaces          805;
        startFace       544241;
        matchTolerance  0.0001;
        myProcNo        4;
        neighbProcNo    1;
    }
    procBoundary4to5
    {
        type            processor;
        inGroups        List<word> 1(processor);
        nFaces          4394;
        startFace       545046;
        matchTolerance  0.0001;
        myProcNo        4;
        neighbProcNo    5;
    }
    procBoundary4to6
    {
        type            processor;
        inGroups        List<word> 1(processor);
        nFaces          229;
        startFace       549440;
        matchTolerance  0.0001;
        myProcNo        4;
        neighbProcNo    6;
    }
)

// ************************************************************************* //
